@<TRIPOS>MOLECULE
chainA_ligand.pdb
 59 66 0 0 0
SMALL
GASTEIGER

@<TRIPOS>ATOM
      1 O           0.8314   -0.5032    2.5389 O.3     1  UNL1       -0.3282
      2 C           0.4184   -1.6986    1.9011 C.3     1  UNL1        0.1402
      3 C           1.5316   -2.3186    1.0714 C.3     1  UNL1        0.0107
      4 C           2.0910   -1.3815   -0.0037 C.3     1  UNL1        0.0423
      5 C           2.4152    0.0066    0.6253 C.3     1  UNL1        0.1214
      6 C           1.3769    0.5265    1.6917 C.3     1  UNL1        0.1741
      7 C           2.1414    1.3814    2.7255 C.3     1  UNL1       -0.0136
      8 N           0.2692    1.2902    1.1250 N.ar    1  UNL1       -0.3070
      9 C          -0.9847    0.8942    0.8066 C.ar    1  UNL1        0.0775
     10 C          -1.3880   -0.4256    0.6468 C.ar    1  UNL1        0.0774
     11 C          -2.4871   -0.6092   -0.2001 C.ar    1  UNL1        0.0225
     12 C          -3.5122    0.2874   -0.5378 C.ar    1  UNL1        0.0575
     13 C          -3.1762    1.6149   -0.2529 C.ar    1  UNL1        0.0134
     14 C          -1.8748    1.8088    0.2480 C.ar    1  UNL1        0.0188
     15 C          -0.8995    2.6588   -0.3530 C.ar    1  UNL1        0.0084
     16 C           0.2630    2.5565    0.4961 C.ar    1  UNL1        0.0527
     17 C           1.2607    3.5472    0.4078 C.ar    1  UNL1       -0.0375
     18 C           1.3208    4.3347   -0.7429 C.ar    1  UNL1       -0.0598
     19 C           0.3683    4.1986   -1.7422 C.ar    1  UNL1       -0.0611
     20 C          -0.7863    3.4373   -1.5295 C.ar    1  UNL1       -0.0520
     21 C          -4.4127    2.1716    0.1688 C.2     1  UNL1        0.0291
     22 N          -5.4120    1.3620    0.0108 N.am    1  UNL1       -0.1839
     23 C          -4.9428    0.1401   -0.5062 C.2     1  UNL1        0.2685
     24 O          -5.6566   -0.8181   -0.7470 O.2     1  UNL1       -0.2680
     25 C          -2.5162   -2.0004   -0.3535 C.ar    1  UNL1        0.0085
     26 C          -1.6432   -2.5310    0.6577 C.ar    1  UNL1        0.0524
     27 C          -1.7047   -3.8935    0.9853 C.ar    1  UNL1       -0.0375
     28 C          -2.4216   -4.7480    0.1438 C.ar    1  UNL1       -0.0598
     29 C          -3.0482   -4.2746   -1.0034 C.ar    1  UNL1       -0.0611
     30 C          -3.1436   -2.9025   -1.2374 C.ar    1  UNL1       -0.0520
     31 N          -0.8022   -1.5219    1.1710 N.ar    1  UNL1       -0.3115
     32 O           2.6899    1.0320   -0.3448 O.3     1  UNL1       -0.3735
     33 C           3.7741    0.8076   -1.2183 C.3     1  UNL1        0.0371
     34 N           1.3347   -1.3220   -1.2539 N.3     1  UNL1       -0.3136
     35 C           1.3272   -2.5717   -2.0121 C.3     1  UNL1       -0.0155
     36 H           0.1706   -2.3896    2.7158 H       1  UNL1        0.0839
     37 H           2.3579   -2.5635    1.7524 H       1  UNL1        0.0325
     38 H           1.2096   -3.2709    0.6400 H       1  UNL1        0.0325
     39 H           3.0698   -1.7982   -0.2883 H       1  UNL1        0.0489
     40 H           3.3513   -0.1517    1.1752 H       1  UNL1        0.0660
     41 H           1.4545    1.8776    3.4220 H       1  UNL1        0.0277
     42 H           2.7924    0.7437    3.3372 H       1  UNL1        0.0277
     43 H           2.7849    2.1338    2.2692 H       1  UNL1        0.0277
     44 H           2.0626    3.6252    1.1304 H       1  UNL1        0.0638
     45 H           2.1683    4.9998   -0.8809 H       1  UNL1        0.0618
     46 H           0.5278    4.6941   -2.6996 H       1  UNL1        0.0618
     47 H          -1.5252    3.3550   -2.3162 H       1  UNL1        0.0624
     48 H          -4.4403    3.1437    0.6785 H       1  UNL1        0.0809
     49 H          -1.2116   -4.2824    1.8690 H       1  UNL1        0.0638
     50 H          -2.4661   -5.8093    0.3768 H       1  UNL1        0.0618
     51 H          -3.5024   -4.9714   -1.7030 H       1  UNL1        0.0618
     52 H          -3.6651   -2.5379   -2.1205 H       1  UNL1        0.0624
     53 H           3.8108    1.6469   -1.9241 H       1  UNL1        0.0524
     54 H           4.7156    0.7933   -0.6519 H       1  UNL1        0.0524
     55 H           3.6614   -0.1066   -1.7981 H       1  UNL1        0.0524
     56 H           0.3847   -0.9712   -1.1506 H       1  UNL1        0.1220
     57 H           0.7474   -3.3582   -1.5188 H       1  UNL1        0.0388
     58 H           2.3348   -2.9358   -2.1777 H       1  UNL1        0.0388
     59 H           0.8864   -2.4095   -3.0016 H       1  UNL1        0.0388
@<TRIPOS>BOND
     1     1     2    1
     2     1     6    1
     3     2     3    1
     4     2    31    1
     5     2    36    1
     6     3     4    1
     7     3    37    1
     8     3    38    1
     9     4     5    1
    10     4    34    1
    11     4    39    1
    12     5     6    1
    13     5    32    1
    14     5    40    1
    15     6     8    1
    16     6     7    1
    17     7    41    1
    18     7    42    1
    19     7    43    1
    20     8     9   ar
    21     8    16   ar
    22     9    10   ar
    23     9    14   ar
    24    10    11   ar
    25    10    31   ar
    26    11    12   ar
    27    11    25   ar
    28    12    13   ar
    29    12    23    1
    30    13    14   ar
    31    13    21    1
    32    14    15   ar
    33    15    16   ar
    34    15    20   ar
    35    16    17   ar
    36    17    18   ar
    37    17    44    1
    38    18    19   ar
    39    18    45    1
    40    19    20   ar
    41    19    46    1
    42    20    47    1
    43    21    22    2
    44    21    48    1
    45    22    23    1
    46    23    24    2
    47    25    26   ar
    48    25    30   ar
    49    26    27   ar
    50    26    31   ar
    51    27    28   ar
    52    27    49    1
    53    28    29   ar
    54    28    50    1
    55    29    30   ar
    56    29    51    1
    57    30    52    1
    58    32    33    1
    59    33    53    1
    60    33    54    1
    61    33    55    1
    62    34    35    1
    63    34    56    1
    64    35    57    1
    65    35    58    1
    66    35    59    1
