chainA_ligand.pdb
 OpenBabel08112523253D

 59 66  0  0  1  0  0  0  0  0999 V2000
    6.0621   -6.4580   -2.5437 O   0  0  0  0  0  0  0  0  0  0  0  0
    6.5307   -7.6701   -1.9651 C   0  0  2  0  0  0  0  0  0  0  0  0
    6.0645   -8.8453   -2.8606 C   0  0  0  0  0  0  0  0  0  0  0  0
    4.6529   -8.6419   -3.4553 C   0  0  2  0  0  0  0  0  0  0  0  0
    3.8058   -7.6872   -2.5654 C   0  0  2  0  0  0  0  0  0  0  0  0
    4.6287   -6.3051   -2.5214 C   0  0  2  0  0  0  0  0  0  0  0  0
    4.3499   -5.5667   -3.8472 C   0  0  0  0  0  0  0  0  0  0  0  0
    4.3731   -5.4873   -1.3505 N   0  0  0  0  0  0  0  0  0  0  0  0
    4.7632   -5.7804   -0.0829 C   0  0  0  0  0  0  0  0  0  0  0  0
    5.5112   -6.8900    0.2807 C   0  0  0  0  0  0  0  0  0  0  0  0
    5.3181   -7.2657    1.6043 C   0  0  0  0  0  0  0  0  0  0  0  0
    4.7175   -6.6175    2.6926 C   0  0  0  0  0  0  0  0  0  0  0  0
    4.1327   -5.4000    2.3602 C   0  0  0  0  0  0  0  0  0  0  0  0
    4.1706   -5.1124    0.9904 C   0  0  0  0  0  0  0  0  0  0  0  0
    3.2825   -4.2282    0.3261 C   0  0  0  0  0  0  0  0  0  0  0  0
    3.4429   -4.4411   -1.1028 C   0  0  0  0  0  0  0  0  0  0  0  0
    2.6643   -3.6712   -1.9950 C   0  0  0  0  0  0  0  0  0  0  0  0
    1.7181   -2.7654   -1.5054 C   0  0  0  0  0  0  0  0  0  0  0  0
    1.5195   -2.6035   -0.1472 C   0  0  0  0  0  0  0  0  0  0  0  0
    2.2871   -3.3237    0.7660 C   0  0  0  0  0  0  0  0  0  0  0  0
    3.6018   -4.9083    3.5655 C   0  0  0  0  0  0  0  0  0  0  0  0
    3.8461   -5.6995    4.5732 N   0  0  0  0  0  0  0  0  0  0  0  0
    4.5672   -6.8271    4.1009 C   0  0  0  0  0  0  0  0  0  0  0  0
    4.9719   -7.7173    4.8319 O   0  0  0  0  0  0  0  0  0  0  0  0
    5.7929   -8.5841    1.5816 C   0  0  0  0  0  0  0  0  0  0  0  0
    6.6391   -8.6862    0.4130 C   0  0  0  0  0  0  0  0  0  0  0  0
    7.6496   -9.6584    0.4041 C   0  0  0  0  0  0  0  0  0  0  0  0
    7.5444  -10.7109    1.3243 C   0  0  0  0  0  0  0  0  0  0  0  0
    6.4517  -10.8204    2.1790 C   0  0  0  0  0  0  0  0  0  0  0  0
    5.5975   -9.7378    2.3539 C   0  0  0  0  0  0  0  0  0  0  0  0
    6.2447   -7.7103   -0.5375 N   0  0  0  0  0  0  0  0  0  0  0  0
    3.6254   -8.3760   -1.3182 O   0  0  0  0  0  0  0  0  0  0  0  0
    2.4505   -8.0485   -0.5907 C   0  0  0  0  0  0  0  0  0  0  0  0
    3.9582   -9.8498   -3.9693 N   0  0  0  0  0  0  0  0  0  0  0  0
    3.8578  -10.9844   -3.0653 C   0  0  0  0  0  0  0  0  0  0  0  0
    7.6318   -7.6285   -2.0200 H   0  0  0  0  0  0  0  0  0  0  0  0
    6.2008   -9.8003   -2.3532 H   0  0  0  0  0  0  0  0  0  0  0  0
    6.7379   -8.8679   -3.7335 H   0  0  0  0  0  0  0  0  0  0  0  0
    4.8054   -8.1036   -4.3948 H   0  0  0  0  0  0  0  0  0  0  0  0
    2.8148   -7.5208   -3.0073 H   0  0  0  0  0  0  0  0  0  0  0  0
    4.8366   -6.0558   -4.6974 H   0  0  0  0  0  0  0  0  0  0  0  0
    4.7644   -4.5509   -3.8310 H   0  0  0  0  0  0  0  0  0  0  0  0
    3.2798   -5.5239   -4.0730 H   0  0  0  0  0  0  0  0  0  0  0  0
    2.7627   -3.7530   -3.0737 H   0  0  0  0  0  0  0  0  0  0  0  0
    1.1207   -2.1923   -2.2089 H   0  0  0  0  0  0  0  0  0  0  0  0
    0.7565   -1.9178    0.2131 H   0  0  0  0  0  0  0  0  0  0  0  0
    2.0880   -3.1827    1.8249 H   0  0  0  0  0  0  0  0  0  0  0  0
    3.0847   -3.9468    3.6284 H   0  0  0  0  0  0  0  0  0  0  0  0
    8.4905   -9.6033   -0.2778 H   0  0  0  0  0  0  0  0  0  0  0  0
    8.3093  -11.4818    1.3506 H   0  0  0  0  0  0  0  0  0  0  0  0
    6.2920  -11.7212    2.7632 H   0  0  0  0  0  0  0  0  0  0  0  0
    4.7804   -9.7866    3.0669 H   0  0  0  0  0  0  0  0  0  0  0  0
    2.4782   -8.5932    0.3584 H   0  0  0  0  0  0  0  0  0  0  0  0
    1.5566   -8.3462   -1.1419 H   0  0  0  0  0  0  0  0  0  0  0  0
    2.3875   -6.9873   -0.3612 H   0  0  0  0  0  0  0  0  0  0  0  0
    3.0178   -9.5982   -4.2723 H   0  0  0  0  0  0  0  0  0  0  0  0
    4.8341  -11.4085   -2.8252 H   0  0  0  0  0  0  0  0  0  0  0  0
    3.2995  -11.7803   -3.5798 H   0  0  0  0  0  0  0  0  0  0  0  0
    3.3105  -10.7521   -2.1513 H   0  0  0  0  0  0  0  0  0  0  0  0
  1  2  1  0  0  0  0
  1  6  1  0  0  0  0
  2  3  1  0  0  0  0
  2 31  1  0  0  0  0
  2 36  1  6  0  0  0
  3  4  1  0  0  0  0
  3 37  1  0  0  0  0
  3 38  1  0  0  0  0
  4  5  1  0  0  0  0
  4 34  1  0  0  0  0
  4 39  1  6  0  0  0
  5  6  1  0  0  0  0
  5 32  1  0  0  0  0
  5 40  1  6  0  0  0
  6  8  1  0  0  0  0
  6  7  1  6  0  0  0
  7 41  1  0  0  0  0
  7 42  1  0  0  0  0
  7 43  1  0  0  0  0
  8  9  1  0  0  0  0
  8 16  1  0  0  0  0
  9 10  2  0  0  0  0
  9 14  1  0  0  0  0
 10 11  1  0  0  0  0
 10 31  1  0  0  0  0
 11 12  2  0  0  0  0
 11 25  1  0  0  0  0
 12 13  1  0  0  0  0
 12 23  1  0  0  0  0
 13 14  2  0  0  0  0
 13 21  1  0  0  0  0
 14 15  1  0  0  0  0
 15 16  2  0  0  0  0
 15 20  1  0  0  0  0
 16 17  1  0  0  0  0
 17 18  2  0  0  0  0
 17 44  1  0  0  0  0
 18 19  1  0  0  0  0
 18 45  1  0  0  0  0
 19 20  2  0  0  0  0
 19 46  1  0  0  0  0
 20 47  1  0  0  0  0
 21 22  2  0  0  0  0
 21 48  1  0  0  0  0
 22 23  1  0  0  0  0
 23 24  2  0  0  0  0
 25 26  2  0  0  0  0
 25 30  1  0  0  0  0
 26 27  1  0  0  0  0
 26 31  1  0  0  0  0
 27 28  2  0  0  0  0
 27 49  1  0  0  0  0
 28 29  1  0  0  0  0
 28 50  1  0  0  0  0
 29 30  2  0  0  0  0
 29 51  1  0  0  0  0
 30 52  1  0  0  0  0
 32 33  1  0  0  0  0
 33 53  1  0  0  0  0
 33 54  1  0  0  0  0
 33 55  1  0  0  0  0
 34 35  1  0  0  0  0
 34 56  1  0  0  0  0
 35 57  1  0  0  0  0
 35 58  1  0  0  0  0
 35 59  1  0  0  0  0
M  END
$$$$
